module/powerflow/autotest/test_line_sensor.glm
// powerflow/test_line_sensor.glm
// Copyright (C) 2016, Stanford University
// Author: DP Chassin (dchassin@slac.stanford.edu)

#set suppress_repeat_messages=false
module powerflow {
	solver_method NR;
}
module tape;

clock
{
	timezone UTC0;						//Local timezone for the simulation
	starttime '2011-01-01 00:00:00'; 	//Start time in the local timezone 
	stoptime '2011-01-02 00:00:00';		//Stop time in the local timezone
}

// TEST LINE
object overhead_line
{
	name LINE_1;
	phases ABC;
	from SWING_BUS;
	to NODE_1;
	configuration conf_OHLine11kV;
	length 1500 m;
	object line_sensor {
		measured_phase A;
		location 750 ft;
		covariance "0.03 0.01 0.02 0.02";
		//covariance "0.1 0.01 0.02 0.02 ; 0.01 0.02 0.03 0.01 0.02 0.03";
		object recorder {
			file sensor.csv;
			property measured_voltage,measured_current,measured_power;
			interval 30 min;
		};
	};
	object recorder {
		file line.csv;
		property current_in_A,current_in_B,current_in_C,current_out_A,current_out_B,current_out_C;
	};
}

// LIBRARY
object line_configuration
{
	name conf_OHLine11kV;
	conductor_A overhead_line_conductor_11kV;
	conductor_B overhead_line_conductor_11kV;
	conductor_C overhead_line_conductor_11kV;
	conductor_N overhead_line_conductor_11kV;
	spacing line_spacing_11kV;
}

object line_spacing
{
	name line_spacing_11kV;
	distance_AB 1.0 m;
	distance_BC 1.0 m;
	distance_AC 2.0 m;
}

object overhead_line_conductor
{
	name overhead_line_conductor_11kV;
	geometric_mean_radius .00446;
	resistance 1.12;
}

// NODES
object meter
{
	name SWING_BUS;
	nominal_voltage 2400;
	voltage_A 2400 V;
	voltage_B 2400+120d V;
	voltage_C 2400-120d V;
	phases ABC;
	bustype SWING;
	object recorder {
		file swing.csv;
		property measured_voltage_A,measured_voltage_B,measured_voltage_C,measured_current_A,measured_current_B,measured_current_C;
		interval 30 min;
	};
}

object meter
{
	name NODE_1;
	nominal_voltage 2400;
	phases ABCN;
	object recorder {
		file node.csv;
		property measured_voltage_A,measured_voltage_B,measured_voltage_C,measured_current_A,measured_current_B,measured_current_C;
		interval 30 min;
	};
}

schedule pulse {
	0-29 * * * * 0;
	30-59 * * * * 1;
}
 
object load
{
	name LOAD_1;
	parent NODE_1;
	phases ABC;
	nominal_voltage 2400;
	base_power_A pulse*140000;
	base_power_B pulse*140000;
	base_power_C pulse*140000;
	power_fraction_A 0.5;
	power_fraction_B 0.5;
	power_fraction_C 0.5;
	current_fraction_A 0.25;
	current_fraction_B 0.25;
	current_fraction_C 0.25;
	impedance_fraction_A 0.25;
	impedance_fraction_B 0.25;
	impedance_fraction_C 0.25;
	power_pf_A 0.9;
	power_pf_B 0.9;
	power_pf_C 0.9;
	current_pf_A 0.8;
	current_pf_B 0.8;
	current_pf_C 0.8;
	impedance_pf_A 0.8;
	impedance_pf_B 0.8;
	impedance_pf_C 0.8;
	object recorder {
		file power.csv;
		property measured_voltage_A,measured_voltage_B,measured_voltage_C,base_power_A,base_power_B,base_power_C;
		interval 30 min;
	};
}
